LAMMPS (28 Jun 2014)
label		begin
variable	n loop 4

units 		real
dimension	3
boundary	s	s	p
atom_style	full

variable assignedTemp equal 300*1
variable waterNumber equal 50
variable dragValue equal 0.2
variable srate equal -1.0e10
variable srate1 equal "-v_srate / 1.0e12"
variable forceType string T

read_data       SWNTH2O50.processed
  orthogonal box = (-5.5 -5.5 -80.5) to (5.5 5.5 80.5)
  reading atoms ...
  795 atoms
  scanning bonds ...
  reading bonds ...
  1986 bonds

pair_style	reax 6.0 1 1 1.0e-6
pair_coeff	* * ffield.reax 1 2 3

compute csym all centro/atom fcc
compute peratom all pe/atom

timestep 0.001

reset_timestep	0
velocity all create 300 12345 mom yes rot no

fix		1 all nvt temp 300 300 0.001 drag 0.2
fix		2 all deform 1 z erate 0.01 units box

variable tmp equal "lz"
variable L0 equal 161

variable strain equal "(lz - v_L0)/v_L0" # lz is the length along z axis.
variable p1 equal "v_strain"
variable p2 equal "-pxx/10000"
variable p3 equal "-pyy/10000"
variable p4 equal "-pzz/10000"

variable tempRecord equal "temp"

# =====================================================
# print and dump atom positions for visualization, e.g. using atomeye
# =====================================================
# Stress- strain faw data
shell       mkdir raw
#variable tmp equal "pzz"
#variable p4 equal "-(pzz-pzz0)/10000"

# Use cfg for AtomEye
#shell       mkdir dump
#dump_modify     1 element C H O

# Use xyz for VMD
#shell       mkdir dumpXYZ
#dump_modify     dumpwall flush yes

# Display thermo
thermo 	100
thermo_style	custom step v_strain temp v_p2 v_p3 v_p4 ke pe press

run		50000
Step strain Temp p2 p3 p4 KinEng PotEng Press
0            0          300    1.0772613    1.1726588    1.1826161    710.02895   -2545.6381   -11441.787
Averages over the last 251 of 501 rows, steps 25000 to 50000:
strain Temp p2 p3 p4 KinEng PotEng Press
0.375 299.99 0.401117 0.46017 0.258906 710.006 -6721.5 -3733.98
Loop time of 4119.71 on 1 procs for 50000 steps with 795 atoms

Pair  time (%) = 4113.66 (99.8529)
Bond  time (%) = 0.0195472 (0.00047448)
Neigh time (%) = 0.87655 (0.021277)
Comm  time (%) = 0.0779788 (0.00189282)
Outpt time (%) = 0.0449333 (0.00109069)
Other time (%) = 5.03916 (0.122318)
